Version 4.1
SHEET 1 1352 680
WIRE 432 -576 432 -640
WIRE 688 -576 688 -624
WIRE 912 -576 912 -624
WIRE 192 -368 144 -368
WIRE 304 -368 304 -400
WIRE 304 -368 272 -368
WIRE 352 -368 304 -368
WIRE 464 -368 432 -368
WIRE 1008 -256 1008 -384
WIRE 624 -208 624 -304
WIRE 624 -208 592 -208
WIRE 464 -192 464 -368
WIRE 528 -192 464 -192
WIRE 704 -176 592 -176
WIRE 352 -160 320 -160
WIRE 464 -160 464 -192
WIRE 464 -160 432 -160
WIRE 528 -160 496 -160
WIRE 736 -144 592 -144
WIRE 832 -144 736 -144
WIRE 1008 -144 1008 -192
WIRE 1008 -144 912 -144
WIRE 1088 -144 1008 -144
WIRE 1008 -112 1008 -144
WIRE 496 -32 496 -160
WIRE 560 -32 496 -32
WIRE 736 -32 736 -144
WIRE 736 -32 640 -32
WIRE 496 0 496 -32
FLAG 240 -160 0
FLAG 496 80 0
FLAG 1008 -48 0
FLAG 432 -496 0
FLAG 688 -496 0
FLAG 912 -496 0
FLAG 432 -640 Vcc
FLAG 688 -624 Vee
FLAG 912 -624 3V3
FLAG 624 -304 Vcc
FLAG 704 -176 Vee
FLAG 1008 -384 3V3
FLAG 304 -480 0
FLAG 144 -368 3V3
FLAG 304 -304 0
SYMBOL voltage 336 -160 R90
WINDOW 0 -32 56 VBottom 2
WINDOW 3 32 56 VTop 2
SYMATTR InstName V1
SYMATTR Value SINE(0 2.8 14)
SYMBOL TL072 560 -176 R0
SYMATTR InstName U1
SYMBOL res 448 -384 R90
WINDOW 0 0 56 VBottom 2
WINDOW 3 32 56 VTop 2
SYMATTR InstName R1
SYMATTR Value 10k
SYMBOL res 448 -176 R90
WINDOW 0 0 56 VBottom 2
WINDOW 3 32 56 VTop 2
SYMATTR InstName R2
SYMATTR Value 10k
SYMBOL res 480 -16 R0
SYMATTR InstName R3
SYMATTR Value 10k
SYMBOL res 656 -48 R90
WINDOW 0 0 56 VBottom 2
WINDOW 3 32 56 VTop 2
SYMATTR InstName R4
SYMATTR Value 10k
SYMBOL res 928 -160 R90
WINDOW 0 0 56 VBottom 2
WINDOW 3 32 56 VTop 2
SYMATTR InstName R5
SYMATTR Value 10k
SYMBOL diode 1024 -192 R180
WINDOW 0 24 64 Left 2
WINDOW 3 24 0 Left 2
SYMATTR InstName D1
SYMATTR Value 1N4148
SYMBOL diode 1024 -48 R180
WINDOW 0 24 64 Left 2
WINDOW 3 24 0 Left 2
SYMATTR InstName D2
SYMATTR Value 1N4148
SYMBOL voltage 432 -592 R0
SYMATTR InstName V6
SYMATTR Value 9V
SYMBOL voltage 688 -592 R0
SYMATTR InstName V7
SYMATTR Value -9V
SYMBOL voltage 912 -592 R0
SYMATTR InstName V8
SYMATTR Value 3.3V
SYMBOL res 288 -496 R0
SYMATTR InstName R6
SYMATTR Value 10k
SYMBOL res 288 -384 R90
WINDOW 0 0 56 VBottom 2
WINDOW 3 32 56 VTop 2
SYMATTR InstName R7
SYMATTR Value 10k
SYMBOL cap 288 -368 R0
SYMATTR InstName C1
SYMATTR Value 10micro
TEXT 192 16 Left 2 !.tran 0.5
TEXT 1080 -144 Left 2 ;Input Pin
