Version 4.1
SHEET 1 4676 952
WIRE -96 -384 -96 -448
WIRE 0 -384 0 -448
WIRE 592 -224 448 -224
WIRE 928 -224 672 -224
WIRE 1248 -176 1104 -176
WIRE 1584 -176 1312 -176
WIRE 2464 -112 2368 -112
WIRE 880 -96 816 -96
WIRE 2416 -96 2416 -144
WIRE -128 -80 -256 -80
WIRE 112 -80 -48 -80
WIRE 320 -80 208 -80
WIRE 448 -80 448 -224
WIRE 448 -80 384 -80
WIRE 496 -80 448 -80
WIRE 608 -80 560 -80
WIRE 752 -80 608 -80
WIRE 896 -64 816 -64
WIRE 2224 -64 2096 -64
WIRE 112 -48 -32 -48
WIRE 240 -48 208 -48
WIRE 752 -48 720 -48
WIRE 1536 -48 1536 -128
WIRE 1536 -48 1472 -48
WIRE 928 -32 928 -224
WIRE 928 -32 816 -32
WIRE 960 -32 928 -32
WIRE 1104 -32 1104 -176
WIRE 1104 -32 1040 -32
WIRE 1152 -32 1104 -32
WIRE 1264 -32 1232 -32
WIRE 1408 -32 1264 -32
WIRE 48 -16 48 -160
WIRE 112 -16 48 -16
WIRE 304 -16 208 -16
WIRE 608 -16 608 -80
WIRE 1552 -16 1472 -16
WIRE 1408 0 1376 0
WIRE 2256 0 2192 0
WIRE 112 16 48 16
WIRE 240 16 208 16
WIRE 1584 16 1584 -176
WIRE 1584 16 1472 16
WIRE 1728 16 1584 16
WIRE 1888 16 1808 16
WIRE 1952 16 1888 16
WIRE 2080 16 2032 16
WIRE 2128 16 2080 16
WIRE 1264 32 1264 -32
WIRE 2256 32 2192 32
WIRE 2096 48 2096 -64
WIRE 2128 48 2096 48
WIRE 240 64 240 16
WIRE 304 64 240 64
WIRE 720 64 720 -48
WIRE 928 64 928 -32
WIRE 928 64 720 64
WIRE 1888 64 1888 16
WIRE 2224 64 2224 -64
WIRE 2224 64 2192 64
WIRE 2272 64 2224 64
WIRE 2400 64 2272 64
WIRE 2544 64 2544 -112
WIRE 2544 64 2480 64
WIRE 2560 64 2544 64
WIRE -256 96 -256 0
WIRE 896 96 896 -64
WIRE 2560 96 2512 96
WIRE 1376 112 1376 0
WIRE 1584 112 1584 16
WIRE 1584 112 1376 112
WIRE 2736 112 2624 112
WIRE 2800 112 2736 112
WIRE 2976 112 2976 48
WIRE 2976 112 2880 112
WIRE 3040 112 2976 112
WIRE 48 144 48 16
WIRE 1552 144 1552 -16
WIRE 1888 160 1888 128
WIRE 2096 160 1888 160
WIRE 2224 160 2096 160
WIRE 2272 176 2272 64
WIRE 2976 176 2976 112
WIRE 608 192 608 64
WIRE 1888 192 1888 160
WIRE 2096 224 2096 160
WIRE 2128 224 2096 224
WIRE 2512 224 2512 96
WIRE 2592 224 2512 224
WIRE 2736 224 2736 112
WIRE 2736 224 2672 224
WIRE 1264 240 1264 96
WIRE 2224 240 2224 160
WIRE 2224 240 2192 240
WIRE 2272 272 2272 256
WIRE 2272 272 2192 272
WIRE 2272 304 2272 272
WIRE 1728 320 1728 16
WIRE 1888 320 1888 272
WIRE 1888 320 1792 320
WIRE 1952 320 1888 320
WIRE 1968 320 1952 320
WIRE 2080 320 2080 16
WIRE 2080 320 2016 320
WIRE 2176 640 2016 640
WIRE 2384 640 2272 640
WIRE 2176 672 2032 672
WIRE 2304 672 2272 672
WIRE 2112 704 2112 560
WIRE 2176 704 2112 704
WIRE 2368 704 2272 704
WIRE 2176 736 2112 736
WIRE 2304 736 2272 736
WIRE 2304 784 2304 736
WIRE 2368 784 2304 784
WIRE 2112 864 2112 736
FLAG -256 96 0
FLAG 0 -304 0
FLAG -96 -304 0
FLAG 240 -48 0
FLAG 608 192 0
FLAG 1264 240 0
FLAG -32 32 0
FLAG -96 -448 Vcc
FLAG 0 -448 Vee
FLAG 48 -160 Vcc
FLAG 48 144 Vee
FLAG 880 -96 Vcc
FLAG 896 96 Vee
FLAG 1552 144 Vee
FLAG 1536 -128 Vcc
FLAG 2256 0 Vcc
FLAG 2256 32 Vee
FLAG 2128 288 Vcc
FLAG 2128 256 Vee
FLAG 2272 304 0
FLAG 2304 672 0
FLAG 2032 752 0
FLAG 2112 560 Vcc
FLAG 2112 864 Vee
FLAG -208 -384 3V3
FLAG -208 -304 0
FLAG 2624 48 Vcc
FLAG 2624 80 Vee
FLAG 2976 -16 3V3
FLAG 2976 240 0
FLAG 2512 304 0
FLAG 2416 -32 0
FLAG 2416 -224 0
FLAG 2288 -112 3V3
SYMBOL voltage -256 -96 R0
SYMATTR InstName V1
SYMATTR Value AC 1
SYMBOL AD620 160 -32 R0
SYMATTR InstName U1
SYMBOL voltage -96 -400 R0
SYMATTR InstName V2
SYMATTR Value 9V
SYMBOL voltage 0 -400 R0
SYMATTR InstName V3
SYMATTR Value -9V
SYMBOL res 288 -32 R0
SYMATTR InstName R1
SYMATTR Value 560ohm
SYMBOL TL072 784 -64 R0
WINDOW 3 2 58 Top 2
SYMATTR InstName U2
SYMBOL cap 384 -96 R90
WINDOW 0 0 32 VBottom 2
WINDOW 3 32 32 VTop 2
SYMATTR InstName C1
SYMATTR Value 220n
SYMBOL cap 560 -96 R90
WINDOW 0 0 32 VBottom 2
WINDOW 3 32 32 VTop 2
SYMATTR InstName C2
SYMATTR Value 220n
SYMBOL res 688 -240 R90
WINDOW 0 0 56 VBottom 2
WINDOW 3 32 56 VTop 2
SYMATTR InstName R2
SYMATTR Value 100k
SYMBOL res 1056 -48 R90
WINDOW 0 0 56 VBottom 2
WINDOW 3 32 56 VTop 2
SYMATTR InstName R3
SYMATTR Value 22k
SYMBOL res 592 -32 R0
SYMATTR InstName R6
SYMATTR Value 100k
SYMBOL TL072 1440 -16 R0
WINDOW 3 2 58 Top 2
SYMATTR InstName U4
SYMBOL res 1248 -48 R90
WINDOW 0 0 56 VBottom 2
WINDOW 3 32 56 VTop 2
SYMATTR InstName R4
SYMATTR Value 22k
SYMBOL cap 1248 32 R0
SYMATTR InstName C3
SYMATTR Value 100n
SYMBOL cap 1312 -192 R90
WINDOW 0 0 32 VBottom 2
WINDOW 3 32 32 VTop 2
SYMATTR InstName C4
SYMATTR Value 100n
SYMBOL res -48 -64 R0
SYMATTR InstName R5
SYMATTR Value 47k
SYMBOL res -32 -96 R90
WINDOW 0 0 56 VBottom 2
WINDOW 3 32 56 VTop 2
SYMATTR InstName R7
SYMATTR Value 47k
SYMBOL TL072 2160 32 R0
SYMATTR InstName U3
SYMBOL res 1824 0 R90
WINDOW 0 0 56 VBottom 2
WINDOW 3 32 56 VTop 2
SYMATTR InstName R13
SYMATTR Value 27k
SYMBOL res 2048 0 R90
WINDOW 0 0 56 VBottom 2
WINDOW 3 32 56 VTop 2
SYMATTR InstName R14
SYMATTR Value 27k
SYMBOL res 1872 176 R0
SYMATTR InstName R15
SYMATTR Value 13.5k
SYMBOL cap 1872 64 R0
SYMATTR InstName C7
SYMATTR Value 200n
SYMBOL cap 1792 304 R90
WINDOW 0 0 32 VBottom 2
WINDOW 3 32 32 VTop 2
SYMATTR InstName C8
SYMATTR Value 100n
SYMBOL cap 2016 304 R90
WINDOW 0 0 32 VBottom 2
WINDOW 3 32 32 VTop 2
SYMATTR InstName C9
SYMATTR Value 100n
SYMBOL TL072 2160 256 R180
SYMATTR InstName U6
SYMBOL res 2256 160 R0
SYMATTR InstName R16
SYMATTR Value 10k
SYMBOL AD620 2224 688 R0
SYMATTR InstName U7
SYMBOL res 2352 688 R0
SYMATTR InstName R17
SYMATTR Value 560ohm
SYMBOL res 2016 656 R0
SYMATTR InstName R18
SYMATTR Value 10k
SYMBOL res 2032 624 R90
WINDOW 0 0 56 VBottom 2
WINDOW 3 32 56 VTop 2
SYMATTR InstName R19
SYMATTR Value 10k
SYMBOL res 2496 48 R90
WINDOW 0 0 56 VBottom 2
WINDOW 3 32 56 VTop 2
SYMATTR InstName R8
SYMATTR Value 10k
SYMBOL TL072 2592 80 R0
SYMATTR InstName U5
SYMBOL voltage -208 -400 R0
SYMATTR InstName V4
SYMATTR Value 3.3V
SYMBOL res 2496 208 R0
SYMATTR InstName R9
SYMATTR Value 10k
SYMBOL res 2688 208 R90
WINDOW 0 0 56 VBottom 2
WINDOW 3 32 56 VTop 2
SYMATTR InstName R10
SYMATTR Value 10k
SYMBOL res 2896 96 R90
WINDOW 0 0 56 VBottom 2
WINDOW 3 32 56 VTop 2
SYMATTR InstName R11
SYMATTR Value 10k
SYMBOL diode 2992 240 R180
WINDOW 0 24 64 Left 2
WINDOW 3 24 0 Left 2
SYMATTR InstName D1
SYMATTR Value 1N4148
SYMBOL diode 2992 48 R180
WINDOW 0 24 64 Left 2
WINDOW 3 24 0 Left 2
SYMATTR InstName D2
SYMATTR Value 1N4148
SYMBOL res 2384 -128 R90
WINDOW 0 0 56 VBottom 2
WINDOW 3 32 56 VTop 2
SYMATTR InstName R12
SYMATTR Value 10k
SYMBOL res 2432 -128 R180
WINDOW 0 36 76 Left 2
WINDOW 3 36 40 Left 2
SYMATTR InstName R20
SYMATTR Value 10k
SYMBOL cap 2400 -96 R0
SYMATTR InstName C5
SYMATTR Value 10micro
SYMBOL res 2560 -128 R90
WINDOW 0 0 56 VBottom 2
WINDOW 3 32 56 VTop 2
SYMATTR InstName R21
SYMATTR Value 10k
TEXT 112 -296 Left 2 !.include AD620.cir
TEXT 112 -368 Left 2 !.ac dec 100 0.1 200
TEXT 3048 104 Left 2 ;Input Pin (A0)
